LAMMPS (7 Feb 2024 - Update 1)
# LAMMPS input script for Ethylene

# 1. Initialization
units           real
atom_style      full
boundary        p p p

# 2. Data Reading
read_data       data.ethylene
Reading data file ...
  orthogonal box = (-10 -10 -10) to (10 10 10)
  reading atoms ...
  6 atoms
  scanning bonds ...
  scanning angles ...
  reading bonds ...
  5 bonds
  reading angles ...
  6 angles
Finding 1-2 1-3 1-4 neighbors ...
     3 = max # of 1-2 neighbors
     2 = max # of 1-3 neighbors
     4 = max # of 1-4 neighbors
     5 = max # of special neighbors

# 3. Force Field Settings (Simplified for demonstration)
# Bond styles: 1=Single, 2=Double
bond_style      harmonic
angle_style     harmonic
dihedral_style  none
improper_style  none
pair_style      lj/cut 10.0

# Coefficients
# pair_coeff    type1 type2 eps sigma
pair_coeff      * * 0.1 3.0  # Generic LJ for everything

# Bond Coeffs: type K r0
# User Params: C-C/Single=100, C=C=147.
# Targets: C-H=1.087 A, C=C=1.339 A
bond_coeff      1 100.0 1.087  # Type 1: Single Bond (C-H)
bond_coeff      2 147.0 1.339  # Type 2: Double Bond (C=C)
bond_coeff      3 800.0 1.20   # Type 3: Triple (unused)

# Angle Coeffs: type K theta0
# User Params: Angle Strength = 60.
# Targets: H-C-H = 117.5, H-C=C = 121.3
# Since we only defined ONE angle type in the converter, we have to pick one equilibrium angle.
# This is a limitation of our simple converter.
# We will use an average or the H-C=C value (121.3) as it is more common (4 vs 2).
angle_coeff     1 60.0 120.0   # Generic angle ~120 degrees

# Note: This is an approximation. In a real simulation, we'd distinguish C-H from C-C single bonds.
# But for "Hello World" to show it runs, this is sufficient.

# 4. Settings
neighbor        2.0 bin
neigh_modify    delay 0 every 1 check yes

# 5. Minimization
thermo          10
thermo_style    custom step temp pe ke etotal press vol
dump            1 all atom 10 dump.ethylene

minimize        1.0e-4 1.0e-6 100 1000
Generated 0 of 15 mixed pair_coeff terms from geometric mixing rule
Step          Temp          PotEng         KinEng         TotEng         Press          Volume
0   0              2.9979845      0              2.9979845      12.063061      8000
Loop time of 0.000119416 on 1 procs for 29 steps with 6 atoms

Minimization stats:
  Stopping criterion = linesearch alpha is zero
  Energy initial, next-to-last, final =
  Force two-norm initial, final = 64.657404 8.1607585e-05
  Force max component initial, final = 34.192167 3.6526419e-05
  Final line search alpha, max atom move = 0.5 1.826321e-05
  Iterations, force evaluations = 29 104

# 6. Dynamics (Making it move!)
undump          1
reset_timestep 0
velocity        all create 300.0 12345 dist gaussian
fix             1 all nve
run             1000
Generated 0 of 15 mixed pair_coeff terms from geometric mixing rule
Step          Temp          PotEng         KinEng         TotEng         Press          Volume
0   300            6.9043868e-12  4.4712151      4.4712151      25.548665      8000
Averages over the last 51 of 101 rows, steps 500 to 1000:
Temp PotEng KinEng TotEng Press Volume
185.419 1.74218 2.7635 4.50568 -1.37658 8000
Loop time of 0.00145448 on 1 procs for 1000 steps with 6 atoms
